xflr5 v6.47

BatPlane
T1-10.0 m/s-Panel-Inviscid
QInf  =   10.000000 m/s
Alpha =   10.000000
Beta  =    0.000°
Phi   =    0.000°
Ctrl  =    0.000
CL    =    1.253885
Cy    =   -0.000000
Cd    =    0.054364     ICd   =    0.054364     PCd   =    0.000000
Cl   =   -3.96e-10
Cm   =     -1.2039
ICn   =   -0.000000     PCn   =   -0.000000 
XCP   =    2.426086     YCP   =    0.000000     ZCP   =    0.230288  
XNP   =    0.000000
Bending = 8585.108634

Main Wing
  y-span        Chord      Ai         Cl        PCd          ICd        CmGeom    CmAirf@chord/4    XTrtop    XTrBot      XCP       BM
  -10.8514     1.3835   -10.010    0.356767    0.000000    0.062974   -1.218798   -0.018246     0.0000    0.0000    0.2891    0.0000
  -10.7773     1.3977    -7.351    0.590156    0.000000    0.076124   -1.798671   -0.048795     0.0000    0.0000    0.3237    0.0852
  -10.6296     1.4258    -5.947    0.803198    0.000000    0.083641   -2.262530   -0.051330     0.0000    0.0000    0.3087    1.1040
  -10.4092     1.4678    -4.897    0.975272    0.000000    0.083530   -2.626845   -0.063856     0.0000    0.0000    0.3105    5.5406
  -10.1177     1.5233    -4.092    1.106092    0.000000    0.079084   -2.828155   -0.076546     0.0000    0.0000    0.3141   18.1145
   -9.7572     1.5920    -3.464    1.199924    0.000000    0.072569   -2.874289   -0.086655     0.0000    0.0000    0.3170   46.1099
   -9.3299     1.6734    -2.984    1.263170    0.000000    0.065780   -2.798447   -0.093798     0.0000    0.0000    0.3189   99.4702
   -8.8390     1.7670    -2.637    1.302628    0.000000    0.059911   -2.638434   -0.098511     0.0000    0.0000    0.3202   190.7136
   -8.2876     1.8720    -2.403    1.324224    0.000000    0.055474   -2.427116   -0.101503     0.0000    0.0000    0.3212   334.7139
   -7.6797     1.9878    -2.260    1.332512    0.000000    0.052497   -2.189513   -0.103343     0.0000    0.0000    0.3221   548.3652
   -7.0193     2.1137    -2.190    1.330723    0.000000    0.050769   -1.943129   -0.104437     0.0000    0.0000    0.3230   850.1273
   -6.3109     2.2486    -2.175    1.321054    0.000000    0.050037   -1.699768   -0.105049     0.0000    0.0000    0.3240   1259.4387
   -5.5594     2.3918    -2.202    1.304863    0.000000    0.050021   -1.466847   -0.105340     0.0000    0.0000    0.3253   1795.9945
   -4.7700     2.5422    -2.261    1.282906    0.000000    0.050470   -1.248826   -0.105452     0.0000    0.0000    0.3267   2478.8898
   -3.9480     2.6988    -2.341    1.255428    0.000000    0.051107   -1.048158   -0.105497     0.0000    0.0000    0.3286   3325.6440
   -3.0990     2.8606    -2.431    1.222264    0.000000    0.051622   -0.866094   -0.105709     0.0000    0.0000    0.3310   4351.1284
   -2.2288     3.0264    -2.514    1.182790    0.000000    0.051550   -0.703380   -0.106551     0.0000    0.0000    0.3346   5566.4377
   -1.3434     3.1951    -2.555    1.135665    0.000000    0.050055   -0.561119   -0.109270     0.0000    0.0000    0.3407   6977.7386
   -0.4488     3.3655    -2.459    1.074129    0.000000    0.044290   -0.442643   -0.117972     0.0000    0.0000    0.3538   8585.1086
    0.4488     3.3655    -2.459    1.074129    0.000000    0.044290   -0.442643   -0.117972     0.0000    0.0000    0.3538   8585.1086
    1.3434     3.1951    -2.555    1.135665    0.000000    0.050055   -0.561119   -0.109270     0.0000    0.0000    0.3407   6977.7386
    2.2288     3.0264    -2.514    1.182790    0.000000    0.051550   -0.703380   -0.106551     0.0000    0.0000    0.3346   5566.4377
    3.0990     2.8606    -2.431    1.222264    0.000000    0.051622   -0.866094   -0.105709     0.0000    0.0000    0.3310   4351.1284
    3.9480     2.6988    -2.341    1.255428    0.000000    0.051107   -1.048158   -0.105497     0.0000    0.0000    0.3286   3325.6440
    4.7700     2.5422    -2.261    1.282906    0.000000    0.050470   -1.248826   -0.105452     0.0000    0.0000    0.3267   2478.8898
    5.5594     2.3918    -2.202    1.304863    0.000000    0.050021   -1.466847   -0.105340     0.0000    0.0000    0.3253   1795.9945
    6.3109     2.2486    -2.175    1.321054    0.000000    0.050037   -1.699768   -0.105049     0.0000    0.0000    0.3240   1259.4387
    7.0193     2.1137    -2.190    1.330723    0.000000    0.050769   -1.943129   -0.104437     0.0000    0.0000    0.3230   850.1273
    7.6797     1.9878    -2.260    1.332512    0.000000    0.052497   -2.189513   -0.103343     0.0000    0.0000    0.3221   548.3652
    8.2876     1.8720    -2.403    1.324224    0.000000    0.055474   -2.427116   -0.101503     0.0000    0.0000    0.3212   334.7139
    8.8390     1.7670    -2.637    1.302628    0.000000    0.059911   -2.638434   -0.098511     0.0000    0.0000    0.3202   190.7136
    9.3299     1.6734    -2.984    1.263170    0.000000    0.065780   -2.798447   -0.093798     0.0000    0.0000    0.3189   99.4702
    9.7572     1.5920    -3.464    1.199924    0.000000    0.072569   -2.874289   -0.086655     0.0000    0.0000    0.3170   46.1099
   10.1177     1.5233    -4.092    1.106092    0.000000    0.079084   -2.828155   -0.076546     0.0000    0.0000    0.3141   18.1145
   10.4092     1.4678    -4.897    0.975272    0.000000    0.083530   -2.626845   -0.063856     0.0000    0.0000    0.3105    5.5406
   10.6296     1.4258    -5.947    0.803198    0.000000    0.083641   -2.262530   -0.051330     0.0000    0.0000    0.3087    1.1040
   10.7773     1.3977    -7.351    0.590156    0.000000    0.076124   -1.798671   -0.048795     0.0000    0.0000    0.3237    0.0852
   10.8514     1.3835   -10.010    0.356767    0.000000    0.062974   -1.218798   -0.018246     0.0000    0.0000    0.2891    0.0000


Main Wing Cp Coefficients
 Panel     CtrlPt.x        CtrlPt.y        CtrlPt.z       Nx      Ny       Nz        Area       Cp
Main WingCp Coefficients
Strip 1
  13       4.905e+00      -1.085e+01       3.563e-01          -0.225          -0.068          -0.972       7.665e-04         -1.3010
  14       4.866e+00      -1.085e+01       3.633e-01          -0.157          -0.059          -0.986       2.224e-03         -1.3547
  15       4.789e+00      -1.085e+01       3.690e-01          -0.020          -0.039          -0.999       3.518e-03         -1.2059
  16       4.679e+00      -1.085e+01       3.629e-01           0.111          -0.018          -0.994       4.665e-03         -0.8393
  17       4.543e+00      -1.085e+01       3.433e-01           0.169          -0.008          -0.986       5.565e-03         -0.5207
  18       4.388e+00      -1.085e+01       3.188e-01           0.145          -0.013          -0.989       6.080e-03         -0.3648
  19       4.224e+00      -1.085e+01       3.014e-01           0.067          -0.030          -0.997       6.209e-03         -0.2843
  20       4.059e+00      -1.085e+01       2.957e-01           0.001          -0.046          -0.999       6.016e-03         -0.2145
  21       3.905e+00      -1.085e+01       2.988e-01          -0.042          -0.057          -0.997       5.492e-03         -0.1510
  22       3.768e+00      -1.085e+01       3.078e-01          -0.093          -0.072          -0.993       4.660e-03         -0.0730
  23       3.659e+00      -1.085e+01       3.214e-01          -0.163          -0.092          -0.982       3.572e-03          0.0638
  24       3.582e+00      -1.085e+01       3.401e-01          -0.342          -0.146          -0.928       2.354e-03          0.3744
  25       3.542e+00      -1.085e+01       3.660e-01          -0.804          -0.280          -0.524       1.399e-03          0.4213
  26       3.542e+00      -1.084e+01       3.962e-01          -0.802          -0.242           0.546       1.390e-03         -1.7661
  27       3.582e+00      -1.084e+01       4.216e-01          -0.330          -0.078           0.941       2.341e-03         -1.9385
  28       3.659e+00      -1.084e+01       4.391e-01          -0.148          -0.019           0.989       3.559e-03         -0.9833
  29       3.768e+00      -1.084e+01       4.509e-01          -0.076           0.002           0.997       4.648e-03         -0.6575
  30       3.905e+00      -1.084e+01       4.580e-01          -0.031           0.015           0.999       5.482e-03         -0.5419
  31       4.059e+00      -1.084e+01       4.600e-01           0.004           0.025           1.000       6.008e-03         -0.4936
  32       4.224e+00      -1.084e+01       4.566e-01           0.037           0.033           0.999       6.192e-03         -0.4844
  33       4.388e+00      -1.084e+01       4.471e-01           0.079           0.042           0.996       6.027e-03         -0.5209
  34       4.543e+00      -1.084e+01       4.313e-01           0.125           0.051           0.991       5.524e-03         -0.6580
  35       4.679e+00      -1.084e+01       4.115e-01           0.167           0.058           0.984       4.700e-03         -0.9813
  36       4.789e+00      -1.084e+01       3.912e-01           0.202           0.063           0.977       3.592e-03         -1.4189
  37       4.866e+00      -1.084e+01       3.744e-01           0.231           0.067           0.971       2.258e-03         -1.8578
  38       4.905e+00      -1.085e+01       3.607e-01           0.551           0.106           0.828       8.983e-04         -1.7135
Strip 2
  39       4.895e+00      -1.077e+01       3.535e-01          -0.225          -0.068          -0.972       2.318e-03         -0.5077
  40       4.855e+00      -1.077e+01       3.606e-01          -0.157          -0.059          -0.986       6.724e-03         -0.4953
  41       4.778e+00      -1.077e+01       3.663e-01          -0.020          -0.039          -0.999       1.064e-02         -0.4053
  42       4.667e+00      -1.077e+01       3.602e-01           0.111          -0.018          -0.994       1.410e-02         -0.2818
  43       4.529e+00      -1.077e+01       3.403e-01           0.169          -0.008          -0.986       1.683e-02         -0.2179
  44       4.373e+00      -1.077e+01       3.156e-01           0.145          -0.013          -0.989       1.838e-02         -0.2241
  45       4.207e+00      -1.077e+01       2.980e-01           0.067          -0.030          -0.997       1.877e-02         -0.2117
  46       4.041e+00      -1.077e+01       2.923e-01           0.001          -0.046          -0.999       1.819e-02         -0.1499
  47       3.884e+00      -1.077e+01       2.954e-01          -0.042          -0.057          -0.997       1.661e-02         -0.0734
  48       3.747e+00      -1.077e+01       3.045e-01          -0.093          -0.072          -0.993       1.409e-02          0.0309
  49       3.636e+00      -1.077e+01       3.182e-01          -0.163          -0.092          -0.982       1.080e-02          0.2103
  50       3.558e+00      -1.077e+01       3.371e-01          -0.342          -0.146          -0.928       7.120e-03          0.5682
  51       3.518e+00      -1.077e+01       3.633e-01          -0.804          -0.280          -0.524       4.232e-03          0.3106
  52       3.518e+00      -1.077e+01       3.938e-01          -0.802          -0.242           0.546       4.202e-03         -2.5701
  53       3.558e+00      -1.077e+01       4.195e-01          -0.330          -0.078           0.941       7.079e-03         -2.5337
  54       3.636e+00      -1.077e+01       4.371e-01          -0.148          -0.019           0.989       1.076e-02         -1.2555
  55       3.747e+00      -1.077e+01       4.491e-01          -0.076           0.002           0.997       1.405e-02         -0.7806
  56       3.884e+00      -1.077e+01       4.563e-01          -0.031           0.015           0.999       1.658e-02         -0.5945
  57       4.041e+00      -1.077e+01       4.582e-01           0.004           0.025           1.000       1.817e-02         -0.5118
  58       4.207e+00      -1.077e+01       4.548e-01           0.037           0.033           0.999       1.872e-02         -0.4849
  59       4.373e+00      -1.077e+01       4.452e-01           0.079           0.042           0.996       1.822e-02         -0.4981
  60       4.529e+00      -1.077e+01       4.293e-01           0.125           0.051           0.991       1.670e-02         -0.5589
  61       4.667e+00      -1.077e+01       4.092e-01           0.167           0.058           0.984       1.421e-02         -0.6904
  62       4.778e+00      -1.077e+01       3.887e-01           0.202           0.063           0.977       1.086e-02         -0.8489
  63       4.855e+00      -1.077e+01       3.717e-01           0.231           0.067           0.971       6.828e-03         -1.1022
  64       4.895e+00      -1.077e+01       3.579e-01           0.551           0.106           0.828       2.716e-03         -0.8586
Strip 3
  65       4.875e+00      -1.062e+01       3.479e-01          -0.225          -0.068          -0.972       3.923e-03          0.1254
  66       4.834e+00      -1.062e+01       3.551e-01          -0.157          -0.059          -0.986       1.138e-02          0.1566
  67       4.755e+00      -1.062e+01       3.609e-01          -0.020          -0.039          -0.999       1.800e-02          0.1769
  68       4.642e+00      -1.062e+01       3.547e-01           0.111          -0.018          -0.994       2.387e-02          0.1280
  69       4.502e+00      -1.062e+01       3.345e-01           0.169          -0.008          -0.986       2.848e-02          0.0295
  70       4.342e+00      -1.063e+01       3.092e-01           0.145          -0.013          -0.989       3.111e-02         -0.0737
  71       4.173e+00      -1.063e+01       2.913e-01           0.067          -0.030          -0.997       3.178e-02         -0.1033
  72       4.003e+00      -1.063e+01       2.855e-01           0.001          -0.046          -0.999       3.079e-02         -0.0446
  73       3.844e+00      -1.063e+01       2.886e-01          -0.042          -0.057          -0.997       2.811e-02          0.0521
  74       3.703e+00      -1.063e+01       2.979e-01          -0.093          -0.072          -0.993       2.385e-02          0.1945
  75       3.590e+00      -1.063e+01       3.119e-01          -0.163          -0.092          -0.982       1.828e-02          0.4196
  76       3.511e+00      -1.062e+01       3.311e-01          -0.342          -0.146          -0.928       1.205e-02          0.7690
  77       3.470e+00      -1.062e+01       3.579e-01          -0.804          -0.280          -0.524       7.163e-03          0.1439
  78       3.470e+00      -1.062e+01       3.890e-01          -0.802          -0.242           0.545       7.110e-03         -3.3266
  79       3.511e+00      -1.062e+01       4.152e-01          -0.330          -0.078           0.941       1.198e-02         -3.0980
  80       3.590e+00      -1.062e+01       4.332e-01          -0.148          -0.019           0.989       1.821e-02         -1.5641
  81       3.703e+00      -1.062e+01       4.454e-01          -0.076           0.002           0.997       2.378e-02         -0.9634
  82       3.844e+00      -1.062e+01       4.527e-01          -0.031           0.015           0.999       2.806e-02         -0.6947
  83       4.003e+00      -1.062e+01       4.547e-01           0.004           0.025           1.000       3.075e-02         -0.5569
  84       4.173e+00      -1.062e+01       4.512e-01           0.037           0.033           0.999       3.169e-02         -0.4882
  85       4.342e+00      -1.062e+01       4.414e-01           0.079           0.042           0.996       3.084e-02         -0.4446
  86       4.502e+00      -1.062e+01       4.252e-01           0.125           0.051           0.991       2.827e-02         -0.3950
  87       4.642e+00      -1.062e+01       4.047e-01           0.167           0.058           0.984       2.405e-02         -0.3496
  88       4.755e+00      -1.062e+01       3.838e-01           0.202           0.063           0.977       1.838e-02         -0.3158
  89       4.834e+00      -1.062e+01       3.665e-01           0.231           0.067           0.971       1.156e-02         -0.4252
  90       4.875e+00      -1.062e+01       3.524e-01           0.551           0.106           0.828       4.598e-03         -0.1282
Strip 4
  91       4.845e+00      -1.040e+01       3.395e-01          -0.225          -0.068          -0.972       5.615e-03          0.2625
  92       4.803e+00      -1.040e+01       3.470e-01          -0.157          -0.059          -0.986       1.629e-02          0.3013
  93       4.721e+00      -1.040e+01       3.529e-01          -0.020          -0.039          -0.999       2.577e-02          0.3249
  94       4.605e+00      -1.040e+01       3.465e-01           0.111          -0.018          -0.994       3.417e-02          0.2659
  95       4.460e+00      -1.040e+01       3.257e-01           0.169          -0.008          -0.986       4.076e-02          0.1490
  96       4.296e+00      -1.040e+01       2.997e-01           0.145          -0.013          -0.989       4.453e-02          0.0264
  97       4.122e+00      -1.041e+01       2.812e-01           0.067          -0.030          -0.997       4.548e-02         -0.0146
  98       3.948e+00      -1.041e+01       2.752e-01           0.001          -0.046          -0.999       4.407e-02          0.0460
  99       3.783e+00      -1.041e+01       2.785e-01          -0.042          -0.057          -0.997       4.023e-02          0.1552
 100       3.639e+00      -1.041e+01       2.880e-01          -0.093          -0.072          -0.993       3.414e-02          0.3125
 101       3.522e+00      -1.040e+01       3.025e-01          -0.163          -0.092          -0.982       2.617e-02          0.5420
 102       3.441e+00      -1.040e+01       3.223e-01          -0.342          -0.146          -0.928       1.725e-02          0.8443
 103       3.399e+00      -1.040e+01       3.498e-01          -0.804          -0.280          -0.525       1.026e-02         -0.0995
 104       3.399e+00      -1.040e+01       3.818e-01          -0.803          -0.243           0.545       1.017e-02         -3.9712
 105       3.441e+00      -1.040e+01       4.088e-01          -0.330          -0.078           0.941       1.715e-02         -3.5427
 106       3.522e+00      -1.040e+01       4.273e-01          -0.148          -0.019           0.989       2.607e-02         -1.8079
 107       3.639e+00      -1.040e+01       4.399e-01          -0.076           0.002           0.997       3.404e-02         -1.1340
 108       3.783e+00      -1.040e+01       4.474e-01          -0.031           0.015           0.999       4.016e-02         -0.8189
 109       3.948e+00      -1.040e+01       4.495e-01           0.004           0.025           1.000       4.401e-02         -0.6418
 110       4.122e+00      -1.040e+01       4.459e-01           0.037           0.033           0.999       4.536e-02         -0.5390
 111       4.296e+00      -1.040e+01       4.358e-01           0.079           0.042           0.996       4.415e-02         -0.4616
 112       4.460e+00      -1.040e+01       4.191e-01           0.125           0.051           0.991       4.047e-02         -0.3747
 113       4.605e+00      -1.040e+01       3.980e-01           0.167           0.058           0.984       3.443e-02         -0.2909
 114       4.721e+00      -1.040e+01       3.765e-01           0.202           0.063           0.977       2.632e-02         -0.2196
 115       4.803e+00      -1.040e+01       3.587e-01           0.231           0.067           0.971       1.654e-02         -0.2944
 116       4.845e+00      -1.040e+01       3.441e-01           0.551           0.106           0.828       6.582e-03          0.0088
Strip 5
 117       4.805e+00      -1.011e+01       3.285e-01          -0.225          -0.068          -0.972       7.425e-03          0.3111
 118       4.762e+00      -1.011e+01       3.362e-01          -0.157          -0.059          -0.986       2.154e-02          0.3541
 119       4.677e+00      -1.011e+01       3.424e-01          -0.020          -0.039          -0.999       3.407e-02          0.3822
 120       4.556e+00      -1.011e+01       3.357e-01           0.111          -0.018          -0.994       4.517e-02          0.3254
 121       4.406e+00      -1.011e+01       3.141e-01           0.169          -0.008          -0.986       5.389e-02          0.2100
 122       4.236e+00      -1.011e+01       2.871e-01           0.145          -0.013          -0.989       5.888e-02          0.0890
 123       4.055e+00      -1.011e+01       2.679e-01           0.067          -0.030          -0.997       6.013e-02          0.0502
 124       3.874e+00      -1.011e+01       2.617e-01           0.001          -0.046          -0.999       5.826e-02          0.1143
 125       3.703e+00      -1.011e+01       2.651e-01          -0.042          -0.057          -0.997       5.319e-02          0.2280
 126       3.553e+00      -1.011e+01       2.750e-01          -0.093          -0.072          -0.993       4.514e-02          0.3874
 127       3.433e+00      -1.011e+01       2.900e-01          -0.163          -0.092          -0.982       3.461e-02          0.6126
 128       3.348e+00      -1.011e+01       3.105e-01          -0.342          -0.146          -0.928       2.282e-02          0.8727
 129       3.304e+00      -1.011e+01       3.391e-01          -0.804          -0.280          -0.525       1.356e-02         -0.3247
 130       3.304e+00      -1.011e+01       3.724e-01          -0.803          -0.243           0.545       1.345e-02         -4.4941
 131       3.348e+00      -1.011e+01       4.003e-01          -0.330          -0.078           0.941       2.266e-02         -3.8900
 132       3.433e+00      -1.011e+01       4.196e-01          -0.148          -0.019           0.989       3.447e-02         -1.9914
 133       3.553e+00      -1.011e+01       4.326e-01          -0.076           0.002           0.997       4.501e-02         -1.2654
 134       3.703e+00      -1.011e+01       4.405e-01          -0.031           0.015           0.999       5.309e-02         -0.9250
 135       3.874e+00      -1.011e+01       4.426e-01           0.004           0.025           1.000       5.819e-02         -0.7273
 136       4.055e+00      -1.011e+01       4.388e-01           0.037           0.033           0.999       5.997e-02         -0.6043
 137       4.236e+00      -1.011e+01       4.284e-01           0.079           0.042           0.996       5.838e-02         -0.5063
 138       4.406e+00      -1.011e+01       4.111e-01           0.125           0.051           0.991       5.351e-02         -0.3981
 139       4.556e+00      -1.011e+01       3.892e-01           0.167           0.058           0.984       4.553e-02         -0.2931
 140       4.677e+00      -1.011e+01       3.668e-01           0.202           0.063           0.977       3.480e-02         -0.2022
 141       4.762e+00      -1.011e+01       3.483e-01           0.231           0.067           0.971       2.187e-02         -0.2601
 142       4.805e+00      -1.011e+01       3.332e-01           0.551           0.106           0.828       8.703e-03          0.0467
Strip 6
 143       4.756e+00      -9.752e+00       3.148e-01          -0.225          -0.068          -0.972       9.376e-03          0.3330
 144       4.711e+00      -9.752e+00       3.228e-01          -0.157          -0.059          -0.986       2.720e-02          0.3788
 145       4.622e+00      -9.752e+00       3.293e-01          -0.020          -0.039          -0.999       4.303e-02          0.4104
 146       4.496e+00      -9.752e+00       3.224e-01           0.111          -0.018          -0.994       5.704e-02          0.3567
 147       4.339e+00      -9.752e+00       2.998e-01           0.169          -0.008          -0.986       6.805e-02          0.2456
 148       4.161e+00      -9.753e+00       2.716e-01           0.145          -0.013          -0.989       7.434e-02          0.1301
 149       3.972e+00      -9.754e+00       2.515e-01           0.067          -0.030          -0.997       7.592e-02          0.0959
 150       3.783e+00      -9.754e+00       2.450e-01           0.001          -0.046          -0.999       7.357e-02          0.1624
 151       3.605e+00      -9.754e+00       2.486e-01          -0.042          -0.057          -0.997       6.717e-02          0.2769
 152       3.448e+00      -9.753e+00       2.589e-01          -0.093          -0.072          -0.993       5.700e-02          0.4353
 153       3.321e+00      -9.753e+00       2.746e-01          -0.163          -0.092          -0.982       4.370e-02          0.6561
 154       3.233e+00      -9.752e+00       2.960e-01          -0.342          -0.146          -0.928       2.882e-02          0.8823
 155       3.187e+00      -9.752e+00       3.259e-01          -0.804          -0.280          -0.525       1.713e-02         -0.5067
 156       3.187e+00      -9.751e+00       3.606e-01          -0.803          -0.243           0.544       1.698e-02         -4.8927
 157       3.233e+00      -9.750e+00       3.899e-01          -0.331          -0.078           0.941       2.861e-02         -4.1489
 158       3.321e+00      -9.749e+00       4.100e-01          -0.148          -0.019           0.989       4.352e-02         -2.1240
 159       3.448e+00      -9.749e+00       4.237e-01          -0.076           0.002           0.997       5.683e-02         -1.3591
 160       3.605e+00      -9.749e+00       4.318e-01          -0.031           0.015           0.999       6.704e-02         -1.0021
 161       3.783e+00      -9.749e+00       4.341e-01           0.004           0.025           1.000       7.347e-02         -0.7928
 162       3.972e+00      -9.749e+00       4.301e-01           0.037           0.033           0.999       7.573e-02         -0.6586
 163       4.161e+00      -9.749e+00       4.192e-01           0.079           0.042           0.996       7.372e-02         -0.5482
 164       4.339e+00      -9.750e+00       4.011e-01           0.125           0.051           0.991       6.757e-02         -0.4262
 165       4.496e+00      -9.750e+00       3.782e-01           0.167           0.058           0.984       5.749e-02         -0.3072
 166       4.622e+00      -9.751e+00       3.549e-01           0.202           0.063           0.977       4.394e-02         -0.2041
 167       4.711e+00      -9.751e+00       3.355e-01           0.231           0.067           0.971       2.762e-02         -0.2516
 168       4.756e+00      -9.752e+00       3.198e-01           0.551           0.106           0.828       1.099e-02          0.0582
Strip 7
 169       4.698e+00      -9.325e+00       2.985e-01          -0.225          -0.068          -0.972       1.149e-02          0.3445
 170       4.650e+00      -9.325e+00       3.070e-01          -0.157          -0.059          -0.986       3.333e-02          0.3921
 171       4.557e+00      -9.325e+00       3.138e-01          -0.020          -0.039          -0.999       5.271e-02          0.4262
 172       4.424e+00      -9.325e+00       3.065e-01           0.111          -0.018          -0.994       6.987e-02          0.3751
 173       4.259e+00      -9.325e+00       2.828e-01           0.169          -0.008          -0.986       8.336e-02          0.2677
 174       4.072e+00      -9.326e+00       2.531e-01           0.145          -0.013          -0.989       9.106e-02          0.1567
 175       3.873e+00      -9.327e+00       2.320e-01           0.067          -0.030          -0.997       9.301e-02          0.1262
 176       3.675e+00      -9.327e+00       2.252e-01           0.001          -0.046          -0.999       9.013e-02          0.1940
 177       3.487e+00      -9.327e+00       2.289e-01          -0.042          -0.057          -0.997       8.229e-02          0.3085
 178       3.323e+00      -9.326e+00       2.398e-01          -0.093          -0.072          -0.993       6.984e-02          0.4656
 179       3.190e+00      -9.326e+00       2.563e-01          -0.163          -0.092          -0.982       5.355e-02          0.6830
 180       3.097e+00      -9.325e+00       2.788e-01          -0.342          -0.146          -0.928       3.531e-02          0.8845
 181       3.049e+00      -9.325e+00       3.103e-01          -0.803          -0.280          -0.526       2.099e-02         -0.6378
 182       3.049e+00      -9.324e+00       3.468e-01          -0.803          -0.243           0.544       2.079e-02         -5.1725
 183       3.097e+00      -9.323e+00       3.775e-01          -0.331          -0.078           0.941       3.504e-02         -4.3284
 184       3.190e+00      -9.322e+00       3.987e-01          -0.148          -0.019           0.989       5.330e-02         -2.2143
 185       3.323e+00      -9.322e+00       4.130e-01          -0.076           0.002           0.997       6.962e-02         -1.4222
 186       3.487e+00      -9.322e+00       4.216e-01          -0.031           0.015           0.999       8.213e-02         -1.0539
 187       3.675e+00      -9.322e+00       4.240e-01           0.004           0.025           1.000       9.001e-02         -0.8375
 188       3.873e+00      -9.322e+00       4.198e-01           0.037           0.033           0.999       9.277e-02         -0.6969
 189       4.072e+00      -9.322e+00       4.083e-01           0.079           0.042           0.996       9.031e-02         -0.5790
 190       4.259e+00      -9.323e+00       3.893e-01           0.125           0.051           0.991       8.278e-02         -0.4483
 191       4.424e+00      -9.323e+00       3.652e-01           0.167           0.058           0.984       7.044e-02         -0.3206
 192       4.557e+00      -9.324e+00       3.407e-01           0.202           0.063           0.977       5.384e-02         -0.2097
 193       4.650e+00      -9.324e+00       3.204e-01           0.231           0.067           0.971       3.384e-02         -0.2503
 194       4.698e+00      -9.325e+00       3.038e-01           0.551           0.106           0.828       1.347e-02          0.0617
Strip 8
 195       4.631e+00      -8.834e+00       2.799e-01          -0.225          -0.068          -0.972       1.377e-02          0.3511
 196       4.580e+00      -8.834e+00       2.888e-01          -0.157          -0.059          -0.986       3.995e-02          0.3998
 197       4.482e+00      -8.834e+00       2.960e-01          -0.020          -0.039          -0.999       6.318e-02          0.4355
 198       4.342e+00      -8.834e+00       2.883e-01           0.112          -0.018          -0.994       8.375e-02          0.3863
 199       4.168e+00      -8.835e+00       2.632e-01           0.169          -0.008          -0.986       9.990e-02          0.2813
 200       3.970e+00      -8.835e+00       2.320e-01           0.145          -0.013          -0.989       1.091e-01          0.1734
 201       3.760e+00      -8.836e+00       2.097e-01           0.067          -0.030          -0.997       1.115e-01          0.1452
 202       3.551e+00      -8.836e+00       2.025e-01           0.001          -0.046          -0.999       1.080e-01          0.2137
 203       3.353e+00      -8.836e+00       2.064e-01          -0.042          -0.057          -0.997       9.864e-02          0.3278
 204       3.179e+00      -8.836e+00       2.178e-01          -0.093          -0.072          -0.993       8.372e-02          0.4840
 205       3.039e+00      -8.835e+00       2.353e-01          -0.163          -0.092          -0.982       6.419e-02          0.6990
 206       2.940e+00      -8.835e+00       2.591e-01          -0.342          -0.146          -0.928       4.234e-02          0.8846
 207       2.890e+00      -8.834e+00       2.923e-01          -0.803          -0.280          -0.526       2.517e-02         -0.7190
 208       2.890e+00      -8.833e+00       3.308e-01          -0.804          -0.243           0.543       2.491e-02         -5.3462
 209       2.940e+00      -8.832e+00       3.633e-01          -0.331          -0.078           0.940       4.199e-02         -4.4396
 210       3.039e+00      -8.832e+00       3.856e-01          -0.148          -0.019           0.989       6.388e-02         -2.2698
 211       3.179e+00      -8.832e+00       4.008e-01          -0.077           0.002           0.997       8.344e-02         -1.4611
 212       3.353e+00      -8.831e+00       4.098e-01          -0.031           0.015           0.999       9.844e-02         -1.0860
 213       3.551e+00      -8.831e+00       4.123e-01           0.004           0.025           1.000       1.079e-01         -0.8655
 214       3.760e+00      -8.831e+00       4.080e-01           0.037           0.033           0.999       1.112e-01         -0.7212
 215       3.970e+00      -8.832e+00       3.958e-01           0.079           0.042           0.996       1.083e-01         -0.5990
 216       4.168e+00      -8.832e+00       3.757e-01           0.125           0.051           0.991       9.923e-02         -0.4632
 217       4.342e+00      -8.833e+00       3.503e-01           0.167           0.058           0.984       8.443e-02         -0.3301
 218       4.482e+00      -8.833e+00       3.244e-01           0.202           0.063           0.977       6.453e-02         -0.2144
 219       4.580e+00      -8.834e+00       3.029e-01           0.231           0.067           0.971       4.057e-02         -0.2507
 220       4.631e+00      -8.834e+00       2.854e-01           0.551           0.106           0.828       1.614e-02          0.0628
Strip 9
 221       4.556e+00      -8.283e+00       2.589e-01          -0.225          -0.068          -0.972       1.623e-02          0.3550
 222       4.502e+00      -8.283e+00       2.684e-01          -0.157          -0.059          -0.986       4.708e-02          0.4045
 223       4.398e+00      -8.283e+00       2.761e-01          -0.020          -0.039          -0.999       7.445e-02          0.4412
 224       4.250e+00      -8.283e+00       2.679e-01           0.112          -0.018          -0.994       9.868e-02          0.3930
 225       4.065e+00      -8.284e+00       2.413e-01           0.169          -0.008          -0.986       1.177e-01          0.2895
 226       3.856e+00      -8.284e+00       2.082e-01           0.145          -0.013          -0.989       1.286e-01          0.1833
 227       3.633e+00      -8.285e+00       1.845e-01           0.067          -0.030          -0.997       1.314e-01          0.1563
 228       3.411e+00      -8.285e+00       1.769e-01           0.001          -0.046          -0.999       1.273e-01          0.2250
 229       3.202e+00      -8.285e+00       1.811e-01          -0.042          -0.057          -0.997       1.162e-01          0.3386
 230       3.017e+00      -8.284e+00       1.932e-01          -0.093          -0.072          -0.993       9.866e-02          0.4939
 231       2.869e+00      -8.284e+00       2.117e-01          -0.163          -0.092          -0.982       7.565e-02          0.7072
 232       2.765e+00      -8.284e+00       2.369e-01          -0.341          -0.146          -0.928       4.990e-02          0.8848
 233       2.711e+00      -8.283e+00       2.721e-01          -0.803          -0.280          -0.527       2.967e-02         -0.7564
 234       2.711e+00      -8.282e+00       3.129e-01          -0.804          -0.243           0.543       2.934e-02         -5.4300
 235       2.765e+00      -8.281e+00       3.473e-01          -0.331          -0.078           0.940       4.947e-02         -4.4944
 236       2.869e+00      -8.281e+00       3.710e-01          -0.148          -0.019           0.989       7.527e-02         -2.2979
 237       3.017e+00      -8.281e+00       3.870e-01          -0.077           0.002           0.997       9.832e-02         -1.4815
 238       3.202e+00      -8.280e+00       3.966e-01          -0.031           0.015           0.999       1.160e-01         -1.1034
 239       3.411e+00      -8.280e+00       3.993e-01           0.004           0.025           1.000       1.271e-01         -0.8811
 240       3.633e+00      -8.281e+00       3.946e-01           0.037           0.033           0.999       1.310e-01         -0.7350
 241       3.856e+00      -8.281e+00       3.818e-01           0.079           0.042           0.996       1.276e-01         -0.6106
 242       4.065e+00      -8.281e+00       3.605e-01           0.125           0.051           0.991       1.169e-01         -0.4719
 243       4.250e+00      -8.282e+00       3.336e-01           0.167           0.058           0.984       9.950e-02         -0.3358
 244       4.398e+00      -8.282e+00       3.061e-01           0.202           0.063           0.977       7.605e-02         -0.2174
 245       4.502e+00      -8.283e+00       2.834e-01           0.231           0.067           0.971       4.781e-02         -0.2511
 246       4.556e+00      -8.283e+00       2.648e-01           0.551           0.106           0.828       1.903e-02          0.0633
Strip 10
 247       4.473e+00      -7.676e+00       2.358e-01          -0.225          -0.068          -0.972       1.885e-02          0.3574
 248       4.416e+00      -7.675e+00       2.459e-01          -0.157          -0.059          -0.986       5.469e-02          0.4073
 249       4.306e+00      -7.675e+00       2.540e-01          -0.020          -0.039          -0.999       8.650e-02          0.4446
 250       4.148e+00      -7.675e+00       2.453e-01           0.112          -0.018          -0.994       1.146e-01          0.3970
 251       3.952e+00      -7.676e+00       2.171e-01           0.169          -0.008          -0.986       1.367e-01          0.2941
 252       3.730e+00      -7.676e+00       1.819e-01           0.145          -0.013          -0.989       1.494e-01          0.1885
 253       3.494e+00      -7.677e+00       1.568e-01           0.067          -0.030          -0.997       1.526e-01          0.1618
 254       3.257e+00      -7.677e+00       1.487e-01           0.001          -0.046          -0.999       1.479e-01          0.2303
 255       3.035e+00      -7.677e+00       1.532e-01          -0.042          -0.057          -0.997       1.350e-01          0.3433
 256       2.839e+00      -7.677e+00       1.660e-01          -0.093          -0.072          -0.993       1.146e-01          0.4976
 257       2.682e+00      -7.676e+00       1.856e-01          -0.162          -0.092          -0.982       8.790e-02          0.7098
 258       2.571e+00      -7.676e+00       2.124e-01          -0.341          -0.146          -0.929       5.799e-02          0.8860
 259       2.514e+00      -7.675e+00       2.498e-01          -0.802          -0.280          -0.527       3.449e-02         -0.7568
 260       2.514e+00      -7.675e+00       2.931e-01          -0.804          -0.243           0.542       3.408e-02         -5.4403
 261       2.571e+00      -7.674e+00       3.297e-01          -0.331          -0.078           0.940       5.746e-02         -4.5039
 262       2.682e+00      -7.674e+00       3.548e-01          -0.148          -0.019           0.989       8.744e-02         -2.3044
 263       2.839e+00      -7.673e+00       3.719e-01          -0.077           0.002           0.997       1.142e-01         -1.4877
 264       3.035e+00      -7.673e+00       3.821e-01          -0.031           0.015           0.999       1.348e-01         -1.1098
 265       3.257e+00      -7.673e+00       3.849e-01           0.004           0.025           1.000       1.477e-01         -0.8876
 266       3.494e+00      -7.673e+00       3.799e-01           0.037           0.033           0.999       1.522e-01         -0.7412
 267       3.730e+00      -7.673e+00       3.663e-01           0.079           0.042           0.996       1.482e-01         -0.6160
 268       3.952e+00      -7.674e+00       3.437e-01           0.125           0.051           0.991       1.359e-01         -0.4761
 269       4.148e+00      -7.674e+00       3.151e-01           0.167           0.058           0.984       1.156e-01         -0.3386
 270       4.306e+00      -7.675e+00       2.859e-01           0.202           0.063           0.977       8.836e-02         -0.2187
 271       4.416e+00      -7.675e+00       2.618e-01           0.231           0.067           0.971       5.555e-02         -0.2511
 272       4.473e+00      -7.675e+00       2.421e-01           0.550           0.106           0.828       2.211e-02          0.0634
Strip 11
 273       4.383e+00      -7.015e+00       2.108e-01          -0.225          -0.068          -0.972       2.164e-02          0.3589
 274       4.322e+00      -7.015e+00       2.215e-01          -0.157          -0.059          -0.986       6.276e-02          0.4090
 275       4.205e+00      -7.015e+00       2.301e-01          -0.020          -0.039          -0.999       9.925e-02          0.4466
 276       4.037e+00      -7.015e+00       2.208e-01           0.112          -0.018          -0.994       1.315e-01          0.3991
 277       3.829e+00      -7.016e+00       1.908e-01           0.169          -0.008          -0.986       1.569e-01          0.2963
 278       3.593e+00      -7.016e+00       1.534e-01           0.145          -0.013          -0.989       1.714e-01          0.1905
 279       3.341e+00      -7.017e+00       1.267e-01           0.067          -0.030          -0.997       1.751e-01          0.1634
 280       3.090e+00      -7.017e+00       1.181e-01           0.001          -0.046          -0.999       1.697e-01          0.2312
 281       2.854e+00      -7.017e+00       1.228e-01          -0.042          -0.057          -0.997       1.550e-01          0.3433
 282       2.646e+00      -7.017e+00       1.365e-01          -0.093          -0.072          -0.993       1.315e-01          0.4966
 283       2.478e+00      -7.016e+00       1.574e-01          -0.162          -0.092          -0.982       1.009e-01          0.7081
 284       2.361e+00      -7.016e+00       1.859e-01          -0.341          -0.146          -0.929       6.655e-02          0.8880
 285       2.300e+00      -7.015e+00       2.256e-01          -0.802          -0.279          -0.528       3.959e-02         -0.7273
 286       2.300e+00      -7.015e+00       2.717e-01          -0.804          -0.243           0.542       3.909e-02         -5.3904
 287       2.361e+00      -7.014e+00       3.105e-01          -0.331          -0.078           0.940       6.592e-02         -4.4764
 288       2.478e+00      -7.014e+00       3.373e-01          -0.148          -0.019           0.989       1.003e-01         -2.2934
 289       2.646e+00      -7.013e+00       3.554e-01          -0.077           0.002           0.997       1.311e-01         -1.4828
 290       2.854e+00      -7.013e+00       3.662e-01          -0.031           0.015           0.999       1.546e-01         -1.1078
 291       3.090e+00      -7.013e+00       3.692e-01           0.004           0.025           1.000       1.695e-01         -0.8872
 292       3.341e+00      -7.013e+00       3.640e-01           0.037           0.033           0.999       1.747e-01         -0.7418
 293       3.593e+00      -7.013e+00       3.495e-01           0.079           0.042           0.996       1.701e-01         -0.6170
 294       3.829e+00      -7.014e+00       3.254e-01           0.125           0.051           0.991       1.559e-01         -0.4769
 295       4.037e+00      -7.014e+00       2.951e-01           0.167           0.058           0.984       1.327e-01         -0.3391
 296       4.205e+00      -7.015e+00       2.640e-01           0.202           0.063           0.977       1.014e-01         -0.2188
 297       4.322e+00      -7.015e+00       2.383e-01           0.231           0.067           0.971       6.374e-02         -0.2507
 298       4.383e+00      -7.015e+00       2.174e-01           0.550           0.106           0.828       2.537e-02          0.0637
Strip 12
 299       4.286e+00      -6.308e+00       1.838e-01          -0.225          -0.068          -0.972       2.455e-02          0.3598
 300       4.222e+00      -6.307e+00       1.952e-01          -0.157          -0.059          -0.986       7.122e-02          0.4100
 301       4.097e+00      -6.307e+00       2.044e-01          -0.020          -0.039          -0.999       1.126e-01          0.4476
 302       3.918e+00      -6.307e+00       1.946e-01           0.112          -0.018          -0.994       1.492e-01          0.4001
 303       3.697e+00      -6.308e+00       1.627e-01           0.169          -0.008          -0.986       1.780e-01          0.2968
 304       3.445e+00      -6.308e+00       1.228e-01           0.145          -0.013          -0.989       1.945e-01          0.1901
 305       3.178e+00      -6.309e+00       9.447e-02           0.067          -0.030          -0.997       1.987e-01          0.1620
 306       2.911e+00      -6.309e+00       8.529e-02           0.001          -0.046          -0.999       1.926e-01          0.2288
 307       2.660e+00      -6.309e+00       9.030e-02          -0.042          -0.057          -0.997       1.758e-01          0.3399
 308       2.438e+00      -6.308e+00       1.049e-01          -0.093          -0.072          -0.993       1.493e-01          0.4920
 309       2.260e+00      -6.308e+00       1.270e-01          -0.162          -0.092          -0.982       1.145e-01          0.7030
 310       2.135e+00      -6.308e+00       1.574e-01          -0.341          -0.146          -0.929       7.553e-02          0.8906
 311       2.070e+00      -6.307e+00       1.996e-01          -0.802          -0.279          -0.528       4.493e-02         -0.6737
 312       2.070e+00      -6.307e+00       2.487e-01          -0.805          -0.243           0.542       4.434e-02         -5.2908
 313       2.135e+00      -6.306e+00       2.900e-01          -0.331          -0.078           0.940       7.478e-02         -4.4182
 314       2.260e+00      -6.306e+00       3.184e-01          -0.148          -0.019           0.989       1.138e-01         -2.2684
 315       2.438e+00      -6.306e+00       3.377e-01          -0.077           0.002           0.997       1.487e-01         -1.4691
 316       2.660e+00      -6.305e+00       3.493e-01          -0.031           0.015           0.999       1.754e-01         -1.0993
 317       2.911e+00      -6.305e+00       3.525e-01           0.004           0.025           1.000       1.923e-01         -0.8817
 318       3.178e+00      -6.305e+00       3.469e-01           0.037           0.033           0.999       1.982e-01         -0.7381
 319       3.445e+00      -6.306e+00       3.314e-01           0.079           0.042           0.996       1.930e-01         -0.6145
 320       3.697e+00      -6.306e+00       3.059e-01           0.125           0.051           0.991       1.769e-01         -0.4753
 321       3.918e+00      -6.306e+00       2.735e-01           0.166           0.058           0.984       1.505e-01         -0.3379
 322       4.097e+00      -6.307e+00       2.405e-01           0.202           0.063           0.977       1.151e-01         -0.2180
 323       4.222e+00      -6.307e+00       2.132e-01           0.231           0.067           0.971       7.233e-02         -0.2499
 324       4.286e+00      -6.307e+00       1.909e-01           0.550           0.106           0.828       2.879e-02          0.0638
Strip 13
 325       4.184e+00      -5.556e+00       1.553e-01          -0.225          -0.068          -0.972       2.757e-02          0.3603
 326       4.115e+00      -5.556e+00       1.674e-01          -0.157          -0.059          -0.986       7.996e-02          0.4104
 327       3.982e+00      -5.556e+00       1.772e-01          -0.020          -0.039          -0.999       1.264e-01          0.4480
 328       3.793e+00      -5.556e+00       1.667e-01           0.112          -0.018          -0.994       1.676e-01          0.4001
 329       3.557e+00      -5.557e+00       1.328e-01           0.169          -0.008          -0.986       1.999e-01          0.2960
 330       3.289e+00      -5.557e+00       9.040e-02           0.145          -0.013          -0.989       2.183e-01          0.1880
 331       3.005e+00      -5.557e+00       6.022e-02           0.067          -0.030          -0.997       2.231e-01          0.1583
 332       2.721e+00      -5.558e+00       5.046e-02           0.001          -0.046          -0.999       2.162e-01          0.2239
 333       2.454e+00      -5.557e+00       5.579e-02          -0.042          -0.057          -0.997       1.974e-01          0.3335
 334       2.218e+00      -5.557e+00       7.127e-02          -0.093          -0.072          -0.993       1.676e-01          0.4842
 335       2.028e+00      -5.557e+00       9.486e-02          -0.162          -0.092          -0.982       1.285e-01          0.6947
 336       1.895e+00      -5.557e+00       1.271e-01          -0.341          -0.146          -0.929       8.482e-02          0.8933
 337       1.827e+00      -5.556e+00       1.721e-01          -0.802          -0.279          -0.529       5.046e-02         -0.5999
 338       1.827e+00      -5.556e+00       2.243e-01          -0.805          -0.243           0.541       4.977e-02         -5.1486
 339       1.895e+00      -5.555e+00       2.682e-01          -0.331          -0.078           0.940       8.394e-02         -4.3338
 340       2.028e+00      -5.555e+00       2.985e-01          -0.148          -0.019           0.989       1.278e-01         -2.2315
 341       2.218e+00      -5.555e+00       3.190e-01          -0.077           0.002           0.997       1.669e-01         -1.4479
 342       2.454e+00      -5.555e+00       3.313e-01          -0.031           0.015           0.999       1.970e-01         -1.0853
 343       2.721e+00      -5.555e+00       3.347e-01           0.004           0.025           1.000       2.159e-01         -0.8719
 344       3.005e+00      -5.555e+00       3.287e-01           0.037           0.033           0.999       2.226e-01         -0.7311
 345       3.289e+00      -5.555e+00       3.123e-01           0.079           0.042           0.996       2.167e-01         -0.6095
 346       3.557e+00      -5.555e+00       2.851e-01           0.125           0.051           0.991       1.986e-01         -0.4717
 347       3.793e+00      -5.555e+00       2.507e-01           0.166           0.058           0.984       1.690e-01         -0.3354
 348       3.982e+00      -5.556e+00       2.156e-01           0.202           0.063           0.977       1.292e-01         -0.2163
 349       4.115e+00      -5.556e+00       1.865e-01           0.231           0.067           0.971       8.121e-02         -0.2489
 350       4.184e+00      -5.556e+00       1.628e-01           0.550           0.106           0.828       3.233e-02          0.0639
Strip 14
 351       4.076e+00      -4.767e+00       1.253e-01          -0.225          -0.068          -0.972       3.064e-02          0.3605
 352       4.003e+00      -4.767e+00       1.382e-01          -0.157          -0.059          -0.986       8.889e-02          0.4105
 353       3.862e+00      -4.767e+00       1.486e-01          -0.020          -0.039          -0.999       1.405e-01          0.4480
 354       3.660e+00      -4.767e+00       1.374e-01           0.112          -0.018          -0.994       1.862e-01          0.3995
 355       3.410e+00      -4.768e+00       1.013e-01           0.169          -0.008          -0.986       2.221e-01          0.2943
 356       3.126e+00      -4.768e+00       5.632e-02           0.145          -0.013          -0.989       2.427e-01          0.1844
 357       2.824e+00      -4.768e+00       2.425e-02           0.067          -0.030          -0.997       2.479e-01          0.1527
 358       2.522e+00      -4.768e+00       1.387e-02           0.001          -0.046          -0.999       2.403e-01          0.2166
 359       2.237e+00      -4.768e+00       1.953e-02          -0.042          -0.057          -0.997       2.195e-01          0.3246
 360       1.987e+00      -4.768e+00       3.599e-02          -0.093          -0.072          -0.993       1.863e-01          0.4736
 361       1.785e+00      -4.768e+00       6.107e-02          -0.162          -0.092          -0.982       1.429e-01          0.6834
 362       1.644e+00      -4.768e+00       9.537e-02          -0.341          -0.146          -0.929       9.430e-02          0.8955
 363       1.571e+00      -4.767e+00       1.432e-01          -0.801          -0.279          -0.529       5.610e-02         -0.5087
 364       1.571e+00      -4.767e+00       1.986e-01          -0.805          -0.244           0.541       5.531e-02         -4.9677
 365       1.644e+00      -4.766e+00       2.454e-01          -0.331          -0.078           0.940       9.328e-02         -4.2250
 366       1.785e+00      -4.766e+00       2.775e-01          -0.148          -0.019           0.989       1.420e-01         -2.1832
 367       1.987e+00      -4.766e+00       2.993e-01          -0.077           0.002           0.997       1.855e-01         -1.4200
 368       2.237e+00      -4.766e+00       3.124e-01          -0.031           0.015           0.999       2.189e-01         -1.0666
 369       2.522e+00      -4.766e+00       3.160e-01           0.004           0.025           1.000       2.400e-01         -0.8586
 370       2.824e+00      -4.766e+00       3.097e-01           0.037           0.033           0.999       2.474e-01         -0.7213
 371       3.126e+00      -4.766e+00       2.922e-01           0.079           0.042           0.996       2.409e-01         -0.6023
 372       3.410e+00      -4.766e+00       2.633e-01           0.125           0.051           0.991       2.208e-01         -0.4666
 373       3.660e+00      -4.767e+00       2.267e-01           0.166           0.058           0.984       1.879e-01         -0.3319
 374       3.862e+00      -4.767e+00       1.894e-01           0.202           0.063           0.977       1.436e-01         -0.2142
 375       4.003e+00      -4.767e+00       1.585e-01           0.231           0.067           0.971       9.028e-02         -0.2477
 376       4.076e+00      -4.767e+00       1.333e-01           0.550           0.106           0.828       3.594e-02          0.0639
Strip 15
 377       3.964e+00      -3.946e+00       9.408e-02          -0.225          -0.068          -0.972       3.373e-02          0.3605
 378       3.887e+00      -3.946e+00       1.078e-01          -0.157          -0.059          -0.986       9.785e-02          0.4104
 379       3.737e+00      -3.946e+00       1.188e-01          -0.020          -0.039          -0.999       1.547e-01          0.4476
 380       3.523e+00      -3.946e+00       1.070e-01           0.112          -0.018          -0.994       2.050e-01          0.3985
 381       3.257e+00      -3.946e+00       6.864e-02           0.169          -0.008          -0.986       2.445e-01          0.2917
 382       2.955e+00      -3.946e+00       2.084e-02           0.145          -0.013          -0.989       2.671e-01          0.1795
 383       2.634e+00      -3.947e+00      -1.321e-02           0.067          -0.030          -0.997       2.729e-01          0.1454
 384       2.314e+00      -3.947e+00      -2.423e-02           0.001          -0.046          -0.999       2.645e-01          0.2073
 385       2.012e+00      -3.947e+00      -1.822e-02          -0.042          -0.057          -0.997       2.416e-01          0.3133
 386       1.746e+00      -3.946e+00      -7.414e-04          -0.093          -0.072          -0.993       2.051e-01          0.4601
 387       1.532e+00      -3.946e+00       2.588e-02          -0.162          -0.092          -0.982       1.573e-01          0.6689
 388       1.382e+00      -3.946e+00       6.230e-02          -0.341          -0.146          -0.929       1.038e-01          0.8965
 389       1.305e+00      -3.946e+00       1.130e-01          -0.801          -0.279          -0.529       6.178e-02         -0.4012
 390       1.305e+00      -3.945e+00       1.719e-01          -0.805          -0.244           0.540       6.087e-02         -4.7483
 391       1.382e+00      -3.945e+00       2.215e-01          -0.331          -0.078           0.940       1.027e-01         -4.0920
 392       1.532e+00      -3.945e+00       2.557e-01          -0.148          -0.019           0.989       1.563e-01         -2.1241
 393       1.746e+00      -3.945e+00       2.788e-01          -0.077           0.002           0.997       2.042e-01         -1.3853
 394       2.012e+00      -3.945e+00       2.927e-01          -0.031           0.015           0.999       2.410e-01         -1.0433
 395       2.314e+00      -3.945e+00       2.965e-01           0.004           0.025           1.000       2.642e-01         -0.8419
 396       2.634e+00      -3.945e+00       2.898e-01           0.037           0.033           0.999       2.723e-01         -0.7091
 397       2.955e+00      -3.945e+00       2.713e-01           0.079           0.042           0.996       2.652e-01         -0.5933
 398       3.257e+00      -3.945e+00       2.406e-01           0.125           0.051           0.991       2.431e-01         -0.4603
 399       3.523e+00      -3.945e+00       2.017e-01           0.166           0.058           0.984       2.068e-01         -0.3277
 400       3.737e+00      -3.945e+00       1.621e-01           0.202           0.063           0.977       1.581e-01         -0.2116
 401       3.887e+00      -3.946e+00       1.293e-01           0.231           0.067           0.971       9.939e-02         -0.2464
 402       3.964e+00      -3.946e+00       1.026e-01           0.550           0.106           0.828       3.957e-02          0.0637
Strip 16
 403       3.848e+00      -3.097e+00       6.183e-02          -0.225          -0.068          -0.972       3.679e-02          0.3603
 404       3.766e+00      -3.097e+00       7.633e-02          -0.157          -0.059          -0.986       1.067e-01          0.4101
 405       3.607e+00      -3.097e+00       8.801e-02          -0.020          -0.039          -0.999       1.687e-01          0.4469
 406       3.380e+00      -3.097e+00       7.549e-02           0.112          -0.018          -0.994       2.236e-01          0.3970
 407       3.099e+00      -3.097e+00       3.487e-02           0.169          -0.008          -0.986       2.666e-01          0.2885
 408       2.779e+00      -3.098e+00      -1.581e-02           0.145          -0.013          -0.989       2.913e-01          0.1735
 409       2.439e+00      -3.098e+00      -5.190e-02           0.067          -0.030          -0.997       2.976e-01          0.1366
 410       2.099e+00      -3.098e+00      -6.358e-02           0.001          -0.046          -0.999       2.885e-01          0.1960
 411       1.779e+00      -3.098e+00      -5.721e-02          -0.042          -0.057          -0.997       2.634e-01          0.2995
 412       1.497e+00      -3.098e+00      -3.868e-02          -0.093          -0.072          -0.993       2.236e-01          0.4436
 413       1.270e+00      -3.098e+00      -1.046e-02          -0.162          -0.092          -0.982       1.716e-01          0.6507
 414       1.111e+00      -3.097e+00       2.814e-02          -0.341          -0.146          -0.929       1.132e-01          0.8956
 415       1.029e+00      -3.097e+00       8.191e-02          -0.801          -0.279          -0.530       6.738e-02         -0.2765
 416       1.029e+00      -3.097e+00       1.443e-01          -0.806          -0.244           0.540       6.636e-02         -4.4857
 417       1.111e+00      -3.097e+00       1.969e-01          -0.331          -0.078           0.940       1.119e-01         -3.9304
 418       1.270e+00      -3.096e+00       2.331e-01          -0.148          -0.019           0.989       1.705e-01         -2.0519
 419       1.497e+00      -3.096e+00       2.577e-01          -0.077           0.002           0.997       2.227e-01         -1.3434
 420       1.779e+00      -3.096e+00       2.723e-01          -0.031           0.015           0.999       2.628e-01         -1.0153
 421       2.099e+00      -3.096e+00       2.764e-01           0.004           0.025           1.000       2.881e-01         -0.8222
 422       2.439e+00      -3.096e+00       2.693e-01           0.037           0.033           0.999       2.970e-01         -0.6948
 423       2.779e+00      -3.096e+00       2.496e-01           0.079           0.042           0.996       2.892e-01         -0.5832
 424       3.099e+00      -3.097e+00       2.171e-01           0.125           0.051           0.991       2.651e-01         -0.4533
 425       3.380e+00      -3.097e+00       1.760e-01           0.166           0.058           0.984       2.256e-01         -0.3232
 426       3.607e+00      -3.097e+00       1.339e-01           0.202           0.063           0.977       1.724e-01         -0.2090
 427       3.766e+00      -3.097e+00       9.916e-02           0.231           0.067           0.971       1.084e-01         -0.2452
 428       3.848e+00      -3.097e+00       7.082e-02           0.550           0.106           0.828       4.316e-02          0.0632
Strip 17
 429       3.730e+00      -2.228e+00       2.877e-02          -0.225          -0.068          -0.972       3.975e-02          0.3598
 430       3.643e+00      -2.228e+00       4.412e-02          -0.157          -0.059          -0.986       1.153e-01          0.4095
 431       3.475e+00      -2.227e+00       5.647e-02          -0.020          -0.039          -0.999       1.823e-01          0.4460
 432       3.235e+00      -2.228e+00       4.323e-02           0.112          -0.018          -0.994       2.415e-01          0.3953
 433       2.937e+00      -2.228e+00       2.465e-04           0.169          -0.008          -0.986       2.880e-01          0.2848
 434       2.598e+00      -2.228e+00      -5.337e-02           0.145          -0.013          -0.989       3.147e-01          0.1667
 435       2.239e+00      -2.228e+00      -9.155e-02           0.067          -0.030          -0.997       3.215e-01          0.1264
 436       1.879e+00      -2.228e+00      -1.039e-01           0.001          -0.046          -0.999       3.116e-01          0.1831
 437       1.541e+00      -2.228e+00      -9.717e-02          -0.042          -0.057          -0.997       2.846e-01          0.2834
 438       1.243e+00      -2.228e+00      -7.757e-02          -0.093          -0.072          -0.993       2.416e-01          0.4238
 439       1.002e+00      -2.228e+00      -4.771e-02          -0.162          -0.092          -0.982       1.854e-01          0.6279
 440       8.341e-01      -2.228e+00      -6.873e-03          -0.341          -0.146          -0.929       1.224e-01          0.8913
 441       7.474e-01      -2.228e+00       5.002e-02          -0.801          -0.279          -0.530       7.281e-02         -0.1307
 442       7.474e-01      -2.227e+00       1.161e-01          -0.806          -0.244           0.540       7.168e-02         -4.1662
 443       8.341e-01      -2.227e+00       1.717e-01          -0.331          -0.078           0.940       1.209e-01         -3.7310
 444       1.002e+00      -2.227e+00       2.100e-01          -0.148          -0.019           0.989       1.841e-01         -1.9627
 445       1.243e+00      -2.227e+00       2.360e-01          -0.077           0.002           0.997       2.406e-01         -1.2920
 446       1.541e+00      -2.227e+00       2.515e-01          -0.031           0.015           0.999       2.839e-01         -0.9818
 447       1.879e+00      -2.227e+00       2.558e-01           0.004           0.025           1.000       3.112e-01         -0.7996
 448       2.239e+00      -2.227e+00       2.483e-01           0.037           0.033           0.999       3.209e-01         -0.6796
 449       2.598e+00      -2.227e+00       2.275e-01           0.079           0.042           0.996       3.124e-01         -0.5731
 450       2.937e+00      -2.227e+00       1.930e-01           0.125           0.051           0.991       2.864e-01         -0.4470
 451       3.235e+00      -2.227e+00       1.495e-01           0.166           0.058           0.984       2.437e-01         -0.3194
 452       3.475e+00      -2.227e+00       1.051e-01           0.202           0.063           0.977       1.863e-01         -0.2070
 453       3.643e+00      -2.227e+00       6.827e-02           0.231           0.067           0.971       1.171e-01         -0.2448
 454       3.730e+00      -2.228e+00       3.828e-02           0.550           0.106           0.828       4.663e-02          0.0619
Strip 18
 455       3.609e+00      -1.343e+00      -4.860e-03          -0.225          -0.068          -0.972       4.255e-02          0.3590
 456       3.518e+00      -1.343e+00       1.134e-02          -0.157          -0.059          -0.986       1.234e-01          0.4086
 457       3.340e+00      -1.343e+00       2.438e-02          -0.020          -0.039          -0.999       1.951e-01          0.4448
 458       3.086e+00      -1.343e+00       1.040e-02           0.112          -0.018          -0.994       2.585e-01          0.3930
 459       2.772e+00      -1.343e+00      -3.498e-02           0.169          -0.008          -0.986       3.083e-01          0.2804
 460       2.414e+00      -1.343e+00      -9.158e-02           0.145          -0.013          -0.989       3.368e-01          0.1593
 461       2.035e+00      -1.343e+00      -1.319e-01           0.067          -0.030          -0.997       3.441e-01          0.1161
 462       1.655e+00      -1.343e+00      -1.449e-01           0.001          -0.046          -0.999       3.336e-01          0.1700
 463       1.298e+00      -1.343e+00      -1.378e-01          -0.042          -0.057          -0.997       3.047e-01          0.2663
 464       9.832e-01      -1.343e+00      -1.171e-01          -0.093          -0.072          -0.993       2.587e-01          0.4011
 465       7.296e-01      -1.343e+00      -8.562e-02          -0.162          -0.092          -0.982       1.984e-01          0.5995
 466       5.520e-01      -1.343e+00      -4.250e-02          -0.341          -0.146          -0.929       1.310e-01          0.8821
 467       4.605e-01      -1.343e+00       1.758e-02          -0.801          -0.279          -0.530       7.795e-02          0.0498
 468       4.605e-01      -1.342e+00       8.729e-02          -0.806          -0.244           0.540       7.671e-02         -3.7509
 469       5.520e-01      -1.342e+00       1.461e-01          -0.331          -0.078           0.940       1.294e-01         -3.4650
 470       7.296e-01      -1.342e+00       1.865e-01          -0.148          -0.019           0.989       1.971e-01         -1.8436
 471       9.832e-01      -1.342e+00       2.139e-01          -0.077           0.002           0.997       2.575e-01         -1.2259
 472       1.298e+00      -1.342e+00       2.303e-01          -0.031           0.015           0.999       3.039e-01         -0.9421
 473       1.655e+00      -1.342e+00       2.348e-01           0.004           0.025           1.000       3.332e-01         -0.7759
 474       2.035e+00      -1.342e+00       2.269e-01           0.037           0.033           0.999       3.434e-01         -0.6663
 475       2.414e+00      -1.342e+00       2.049e-01           0.079           0.042           0.996       3.344e-01         -0.5666
 476       2.772e+00      -1.342e+00       1.686e-01           0.125           0.051           0.991       3.066e-01         -0.4445
 477       3.086e+00      -1.342e+00       1.226e-01           0.166           0.058           0.984       2.609e-01         -0.3190
 478       3.340e+00      -1.343e+00       7.568e-02           0.202           0.063           0.977       1.994e-01         -0.2077
 479       3.518e+00      -1.343e+00       3.684e-02           0.231           0.067           0.971       1.254e-01         -0.2465
 480       3.609e+00      -1.343e+00       5.179e-03           0.550           0.106           0.828       4.992e-02          0.0590
Strip 19
 481       3.487e+00      -4.486e-01      -3.884e-02          -0.225          -0.068          -0.972       4.513e-02          0.3578
 482       3.391e+00      -4.486e-01      -2.178e-02          -0.157          -0.059          -0.986       1.309e-01          0.4076
 483       3.204e+00      -4.486e-01      -8.041e-03          -0.020          -0.039          -0.999       2.069e-01          0.4426
 484       2.937e+00      -4.486e-01      -2.277e-02           0.112          -0.018          -0.994       2.742e-01          0.3866
 485       2.605e+00      -4.486e-01      -7.057e-02           0.169          -0.008          -0.986       3.270e-01          0.2712
 486       2.229e+00      -4.486e-01      -1.302e-01           0.145          -0.013          -0.989       3.572e-01          0.1493
 487       1.829e+00      -4.487e-01      -1.727e-01           0.067          -0.030          -0.997       3.650e-01          0.1083
 488       1.429e+00      -4.487e-01      -1.864e-01           0.001          -0.046          -0.999       3.538e-01          0.1644
 489       1.053e+00      -4.487e-01      -1.789e-01          -0.042          -0.057          -0.997       3.231e-01          0.2590
 490       7.211e-01      -4.486e-01      -1.571e-01          -0.093          -0.072          -0.993       2.743e-01          0.3861
 491       4.541e-01      -4.486e-01      -1.239e-01          -0.162          -0.092          -0.982       2.105e-01          0.5761
 492       2.669e-01      -4.486e-01      -7.849e-02          -0.341          -0.146          -0.929       1.390e-01          0.8734
 493       1.706e-01      -4.486e-01      -1.521e-02          -0.801          -0.279          -0.530       8.269e-02          0.3039
 494       1.706e-01      -4.485e-01       5.823e-02          -0.806          -0.244           0.539       8.135e-02         -3.0891
 495       2.669e-01      -4.485e-01       1.201e-01          -0.331          -0.078           0.940       1.372e-01         -2.9963
 496       4.541e-01      -4.485e-01       1.627e-01          -0.148          -0.019           0.989       2.090e-01         -1.6345
 497       7.211e-01      -4.484e-01       1.916e-01          -0.077           0.002           0.997       2.731e-01         -1.1307
 498       1.053e+00      -4.484e-01       2.088e-01          -0.031           0.015           0.999       3.223e-01         -0.8969
 499       1.429e+00      -4.484e-01       2.136e-01           0.004           0.025           1.000       3.534e-01         -0.7584
 500       1.829e+00      -4.484e-01       2.053e-01           0.037           0.033           0.999       3.643e-01         -0.6651
 501       2.229e+00      -4.484e-01       1.822e-01           0.079           0.042           0.996       3.547e-01         -0.5767
 502       2.605e+00      -4.485e-01       1.438e-01           0.125           0.051           0.991       3.252e-01         -0.4578
 503       2.937e+00      -4.485e-01       9.545e-02           0.166           0.058           0.984       2.767e-01         -0.3312
 504       3.204e+00      -4.485e-01       4.600e-02           0.202           0.063           0.977       2.115e-01         -0.2173
 505       3.391e+00      -4.486e-01       5.087e-03           0.231           0.067           0.971       1.330e-01         -0.2541
 506       3.487e+00      -4.486e-01      -2.827e-02           0.550           0.106           0.828       5.294e-02          0.0512
Strip 20
 507       3.487e+00       4.486e-01      -3.884e-02          -0.225           0.068          -0.972       4.513e-02          0.3578
 508       3.391e+00       4.486e-01      -2.178e-02          -0.157           0.059          -0.986       1.309e-01          0.4076
 509       3.204e+00       4.486e-01      -8.041e-03          -0.020           0.039          -0.999       2.069e-01          0.4426
 510       2.937e+00       4.486e-01      -2.277e-02           0.112           0.018          -0.994       2.742e-01          0.3866
 511       2.605e+00       4.486e-01      -7.057e-02           0.169           0.008          -0.986       3.270e-01          0.2712
 512       2.229e+00       4.486e-01      -1.302e-01           0.145           0.013          -0.989       3.572e-01          0.1493
 513       1.829e+00       4.487e-01      -1.727e-01           0.067           0.030          -0.997       3.650e-01          0.1083
 514       1.429e+00       4.487e-01      -1.864e-01           0.001           0.046          -0.999       3.538e-01          0.1644
 515       1.053e+00       4.487e-01      -1.789e-01          -0.042           0.057          -0.997       3.231e-01          0.2590
 516       7.211e-01       4.486e-01      -1.571e-01          -0.093           0.072          -0.993       2.743e-01          0.3861
 517       4.541e-01       4.486e-01      -1.239e-01          -0.162           0.092          -0.982       2.105e-01          0.5761
 518       2.669e-01       4.486e-01      -7.849e-02          -0.341           0.146          -0.929       1.390e-01          0.8734
 519       1.706e-01       4.486e-01      -1.521e-02          -0.801           0.279          -0.530       8.269e-02          0.3039
 520       1.706e-01       4.485e-01       5.823e-02          -0.806           0.244           0.539       8.135e-02         -3.0891
 521       2.669e-01       4.485e-01       1.201e-01          -0.331           0.078           0.940       1.372e-01         -2.9963
 522       4.541e-01       4.485e-01       1.627e-01          -0.148           0.019           0.989       2.090e-01         -1.6345
 523       7.211e-01       4.484e-01       1.916e-01          -0.077          -0.002           0.997       2.731e-01         -1.1307
 524       1.053e+00       4.484e-01       2.088e-01          -0.031          -0.015           0.999       3.223e-01         -0.8969
 525       1.429e+00       4.484e-01       2.136e-01           0.004          -0.025           1.000       3.534e-01         -0.7584
 526       1.829e+00       4.484e-01       2.053e-01           0.037          -0.033           0.999       3.643e-01         -0.6651
 527       2.229e+00       4.484e-01       1.822e-01           0.079          -0.042           0.996       3.547e-01         -0.5767
 528       2.605e+00       4.485e-01       1.438e-01           0.125          -0.051           0.991       3.252e-01         -0.4578
 529       2.937e+00       4.485e-01       9.545e-02           0.166          -0.058           0.984       2.767e-01         -0.3312
 530       3.204e+00       4.485e-01       4.600e-02           0.202          -0.063           0.977       2.115e-01         -0.2173
 531       3.391e+00       4.486e-01       5.087e-03           0.231          -0.067           0.971       1.330e-01         -0.2541
 532       3.487e+00       4.486e-01      -2.827e-02           0.550          -0.106           0.828       5.294e-02          0.0512
Strip 21
 533       3.609e+00       1.343e+00      -4.860e-03          -0.225           0.068          -0.972       4.255e-02          0.3590
 534       3.518e+00       1.343e+00       1.134e-02          -0.157           0.059          -0.986       1.234e-01          0.4086
 535       3.340e+00       1.343e+00       2.438e-02          -0.020           0.039          -0.999       1.951e-01          0.4448
 536       3.086e+00       1.343e+00       1.040e-02           0.112           0.018          -0.994       2.585e-01          0.3930
 537       2.772e+00       1.343e+00      -3.498e-02           0.169           0.008          -0.986       3.083e-01          0.2804
 538       2.414e+00       1.343e+00      -9.158e-02           0.145           0.013          -0.989       3.368e-01          0.1593
 539       2.035e+00       1.343e+00      -1.319e-01           0.067           0.030          -0.997       3.441e-01          0.1161
 540       1.655e+00       1.343e+00      -1.449e-01           0.001           0.046          -0.999       3.336e-01          0.1700
 541       1.298e+00       1.343e+00      -1.378e-01          -0.042           0.057          -0.997       3.047e-01          0.2663
 542       9.832e-01       1.343e+00      -1.171e-01          -0.093           0.072          -0.993       2.587e-01          0.4011
 543       7.296e-01       1.343e+00      -8.562e-02          -0.162           0.092          -0.982       1.984e-01          0.5995
 544       5.520e-01       1.343e+00      -4.250e-02          -0.341           0.146          -0.929       1.310e-01          0.8821
 545       4.605e-01       1.343e+00       1.758e-02          -0.801           0.279          -0.530       7.795e-02          0.0498
 546       4.605e-01       1.342e+00       8.729e-02          -0.806           0.244           0.540       7.671e-02         -3.7509
 547       5.520e-01       1.342e+00       1.461e-01          -0.331           0.078           0.940       1.294e-01         -3.4650
 548       7.296e-01       1.342e+00       1.865e-01          -0.148           0.019           0.989       1.971e-01         -1.8436
 549       9.832e-01       1.342e+00       2.139e-01          -0.077          -0.002           0.997       2.575e-01         -1.2259
 550       1.298e+00       1.342e+00       2.303e-01          -0.031          -0.015           0.999       3.039e-01         -0.9421
 551       1.655e+00       1.342e+00       2.348e-01           0.004          -0.025           1.000       3.332e-01         -0.7759
 552       2.035e+00       1.342e+00       2.269e-01           0.037          -0.033           0.999       3.434e-01         -0.6663
 553       2.414e+00       1.342e+00       2.049e-01           0.079          -0.042           0.996       3.344e-01         -0.5666
 554       2.772e+00       1.342e+00       1.686e-01           0.125          -0.051           0.991       3.066e-01         -0.4445
 555       3.086e+00       1.342e+00       1.226e-01           0.166          -0.058           0.984       2.609e-01         -0.3190
 556       3.340e+00       1.343e+00       7.568e-02           0.202          -0.063           0.977       1.994e-01         -0.2077
 557       3.518e+00       1.343e+00       3.684e-02           0.231          -0.067           0.971       1.254e-01         -0.2465
 558       3.609e+00       1.343e+00       5.179e-03           0.550          -0.106           0.828       4.992e-02          0.0590
Strip 22
 559       3.730e+00       2.228e+00       2.877e-02          -0.225           0.068          -0.972       3.975e-02          0.3598
 560       3.643e+00       2.228e+00       4.412e-02          -0.157           0.059          -0.986       1.153e-01          0.4095
 561       3.475e+00       2.227e+00       5.647e-02          -0.020           0.039          -0.999       1.823e-01          0.4460
 562       3.235e+00       2.228e+00       4.323e-02           0.112           0.018          -0.994       2.415e-01          0.3953
 563       2.937e+00       2.228e+00       2.465e-04           0.169           0.008          -0.986       2.880e-01          0.2848
 564       2.598e+00       2.228e+00      -5.337e-02           0.145           0.013          -0.989       3.147e-01          0.1667
 565       2.239e+00       2.228e+00      -9.155e-02           0.067           0.030          -0.997       3.215e-01          0.1264
 566       1.879e+00       2.228e+00      -1.039e-01           0.001           0.046          -0.999       3.116e-01          0.1831
 567       1.541e+00       2.228e+00      -9.717e-02          -0.042           0.057          -0.997       2.846e-01          0.2834
 568       1.243e+00       2.228e+00      -7.757e-02          -0.093           0.072          -0.993       2.416e-01          0.4238
[...]
 852       3.783e+00       9.754e+00       2.450e-01           0.001           0.046          -0.999       7.357e-02          0.1624
 853       3.605e+00       9.754e+00       2.486e-01          -0.042           0.057          -0.997       6.717e-02          0.2769
 854       3.448e+00       9.753e+00       2.589e-01          -0.093           0.072          -0.993       5.700e-02          0.4353
 855       3.321e+00       9.753e+00       2.746e-01          -0.163           0.092          -0.982       4.370e-02          0.6561
 856       3.233e+00       9.752e+00       2.960e-01          -0.342           0.146          -0.928       2.882e-02          0.8823
 857       3.187e+00       9.752e+00       3.259e-01          -0.804           0.280          -0.525       1.713e-02         -0.5067
 858       3.187e+00       9.751e+00       3.606e-01          -0.803           0.243           0.544       1.698e-02         -4.8927
 859       3.233e+00       9.750e+00       3.899e-01          -0.331           0.078           0.941       2.861e-02         -4.1489
 860       3.321e+00       9.749e+00       4.100e-01          -0.148           0.019           0.989       4.352e-02         -2.1240
 861       3.448e+00       9.749e+00       4.237e-01          -0.076          -0.002           0.997       5.683e-02         -1.3591
 862       3.605e+00       9.749e+00       4.318e-01          -0.031          -0.015           0.999       6.704e-02         -1.0021
 863       3.783e+00       9.749e+00       4.341e-01           0.004          -0.025           1.000       7.347e-02         -0.7928
 864       3.972e+00       9.749e+00       4.301e-01           0.037          -0.033           0.999       7.573e-02         -0.6586
 865       4.161e+00       9.749e+00       4.192e-01           0.079          -0.042           0.996       7.372e-02         -0.5482
 866       4.339e+00       9.750e+00       4.011e-01           0.125          -0.051           0.991       6.757e-02         -0.4262
 867       4.496e+00       9.750e+00       3.782e-01           0.167          -0.058           0.984       5.749e-02         -0.3072
 868       4.622e+00       9.751e+00       3.549e-01           0.202          -0.063           0.977       4.394e-02         -0.2041
 869       4.711e+00       9.751e+00       3.355e-01           0.231          -0.067           0.971       2.762e-02         -0.2516
 870       4.756e+00       9.752e+00       3.198e-01           0.551          -0.106           0.828       1.099e-02          0.0582
Strip 34
 871       4.805e+00       1.011e+01       3.285e-01          -0.225           0.068          -0.972       7.425e-03          0.3111
 872       4.762e+00       1.011e+01       3.362e-01          -0.157           0.059          -0.986       2.154e-02          0.3541
 873       4.677e+00       1.011e+01       3.424e-01          -0.020           0.039          -0.999       3.407e-02          0.3822
 874       4.556e+00       1.011e+01       3.357e-01           0.111           0.018          -0.994       4.517e-02          0.3254
 875       4.406e+00       1.011e+01       3.141e-01           0.169           0.008          -0.986       5.389e-02          0.2100
 876       4.236e+00       1.011e+01       2.871e-01           0.145           0.013          -0.989       5.888e-02          0.0890
 877       4.055e+00       1.011e+01       2.679e-01           0.067           0.030          -0.997       6.013e-02          0.0502
 878       3.874e+00       1.011e+01       2.617e-01           0.001           0.046          -0.999       5.826e-02          0.1143
 879       3.703e+00       1.011e+01       2.651e-01          -0.042           0.057          -0.997       5.319e-02          0.2280
 880       3.553e+00       1.011e+01       2.750e-01          -0.093           0.072          -0.993       4.514e-02          0.3874
 881       3.433e+00       1.011e+01       2.900e-01          -0.163           0.092          -0.982       3.461e-02          0.6126
 882       3.348e+00       1.011e+01       3.105e-01          -0.342           0.146          -0.928       2.282e-02          0.8727
 883       3.304e+00       1.011e+01       3.391e-01          -0.804           0.280          -0.525       1.356e-02         -0.3247
 884       3.304e+00       1.011e+01       3.724e-01          -0.803           0.243           0.545       1.345e-02         -4.4941
 885       3.348e+00       1.011e+01       4.003e-01          -0.330           0.078           0.941       2.266e-02         -3.8900
 886       3.433e+00       1.011e+01       4.196e-01          -0.148           0.019           0.989       3.447e-02         -1.9914
 887       3.553e+00       1.011e+01       4.326e-01          -0.076          -0.002           0.997       4.501e-02         -1.2654
 888       3.703e+00       1.011e+01       4.405e-01          -0.031          -0.015           0.999       5.309e-02         -0.9250
 889       3.874e+00       1.011e+01       4.426e-01           0.004          -0.025           1.000       5.819e-02         -0.7273
 890       4.055e+00       1.011e+01       4.388e-01           0.037          -0.033           0.999       5.997e-02         -0.6043
 891       4.236e+00       1.011e+01       4.284e-01           0.079          -0.042           0.996       5.838e-02         -0.5063
 892       4.406e+00       1.011e+01       4.111e-01           0.125          -0.051           0.991       5.351e-02         -0.3981
 893       4.556e+00       1.011e+01       3.892e-01           0.167          -0.058           0.984       4.553e-02         -0.2931
 894       4.677e+00       1.011e+01       3.668e-01           0.202          -0.063           0.977       3.480e-02         -0.2022
 895       4.762e+00       1.011e+01       3.483e-01           0.231          -0.067           0.971       2.187e-02         -0.2601
 896       4.805e+00       1.011e+01       3.332e-01           0.551          -0.106           0.828       8.703e-03          0.0467
Strip 35
 897       4.845e+00       1.040e+01       3.395e-01          -0.225           0.068          -0.972       5.615e-03          0.2625
 898       4.803e+00       1.040e+01       3.470e-01          -0.157           0.059          -0.986       1.629e-02          0.3013
 899       4.721e+00       1.040e+01       3.529e-01          -0.020           0.039          -0.999       2.577e-02          0.3249
 900       4.605e+00       1.040e+01       3.465e-01           0.111           0.018          -0.994       3.417e-02          0.2659
 901       4.460e+00       1.040e+01       3.257e-01           0.169           0.008          -0.986       4.076e-02          0.1490
 902       4.296e+00       1.040e+01       2.997e-01           0.145           0.013          -0.989       4.453e-02          0.0264
 903       4.122e+00       1.041e+01       2.812e-01           0.067           0.030          -0.997       4.548e-02         -0.0146
 904       3.948e+00       1.041e+01       2.752e-01           0.001           0.046          -0.999       4.407e-02          0.0460
 905       3.783e+00       1.041e+01       2.785e-01          -0.042           0.057          -0.997       4.023e-02          0.1552
 906       3.639e+00       1.041e+01       2.880e-01          -0.093           0.072          -0.993       3.414e-02          0.3125
 907       3.522e+00       1.040e+01       3.025e-01          -0.163           0.092          -0.982       2.617e-02          0.5420
 908       3.441e+00       1.040e+01       3.223e-01          -0.342           0.146          -0.928       1.725e-02          0.8443
 909       3.399e+00       1.040e+01       3.498e-01          -0.804           0.280          -0.525       1.026e-02         -0.0995
 910       3.399e+00       1.040e+01       3.818e-01          -0.803           0.243           0.545       1.017e-02         -3.9712
 911       3.441e+00       1.040e+01       4.088e-01          -0.330           0.078           0.941       1.715e-02         -3.5427
 912       3.522e+00       1.040e+01       4.273e-01          -0.148           0.019           0.989       2.607e-02         -1.8079
 913       3.639e+00       1.040e+01       4.399e-01          -0.076          -0.002           0.997       3.404e-02         -1.1340
 914       3.783e+00       1.040e+01       4.474e-01          -0.031          -0.015           0.999       4.016e-02         -0.8189
 915       3.948e+00       1.040e+01       4.495e-01           0.004          -0.025           1.000       4.401e-02         -0.6418
 916       4.122e+00       1.040e+01       4.459e-01           0.037          -0.033           0.999       4.536e-02         -0.5390
 917       4.296e+00       1.040e+01       4.358e-01           0.079          -0.042           0.996       4.415e-02         -0.4616
 918       4.460e+00       1.040e+01       4.191e-01           0.125          -0.051           0.991       4.047e-02         -0.3747
 919       4.605e+00       1.040e+01       3.980e-01           0.167          -0.058           0.984       3.443e-02         -0.2909
 920       4.721e+00       1.040e+01       3.765e-01           0.202          -0.063           0.977       2.632e-02         -0.2196
 921       4.803e+00       1.040e+01       3.587e-01           0.231          -0.067           0.971       1.654e-02         -0.2944
 922       4.845e+00       1.040e+01       3.441e-01           0.551          -0.106           0.828       6.582e-03          0.0088
Strip 36
 923       4.875e+00       1.062e+01       3.479e-01          -0.225           0.068          -0.972       3.923e-03          0.1254
 924       4.834e+00       1.062e+01       3.551e-01          -0.157           0.059          -0.986       1.138e-02          0.1566
 925       4.755e+00       1.062e+01       3.609e-01          -0.020           0.039          -0.999       1.800e-02          0.1769
 926       4.642e+00       1.062e+01       3.547e-01           0.111           0.018          -0.994       2.387e-02          0.1280
 927       4.502e+00       1.062e+01       3.345e-01           0.169           0.008          -0.986       2.848e-02          0.0295
 928       4.342e+00       1.063e+01       3.092e-01           0.145           0.013          -0.989       3.111e-02         -0.0737
 929       4.173e+00       1.063e+01       2.913e-01           0.067           0.030          -0.997       3.178e-02         -0.1033
 930       4.003e+00       1.063e+01       2.855e-01           0.001           0.046          -0.999       3.079e-02         -0.0446
 931       3.844e+00       1.063e+01       2.886e-01          -0.042           0.057          -0.997       2.811e-02          0.0521
 932       3.703e+00       1.063e+01       2.979e-01          -0.093           0.072          -0.993       2.385e-02          0.1945
 933       3.590e+00       1.063e+01       3.119e-01          -0.163           0.092          -0.982       1.828e-02          0.4196
 934       3.511e+00       1.062e+01       3.311e-01          -0.342           0.146          -0.928       1.205e-02          0.7690
 935       3.470e+00       1.062e+01       3.579e-01          -0.804           0.280          -0.524       7.163e-03          0.1439
 936       3.470e+00       1.062e+01       3.890e-01          -0.802           0.242           0.545       7.110e-03         -3.3266
 937       3.511e+00       1.062e+01       4.152e-01          -0.330           0.078           0.941       1.198e-02         -3.0980
 938       3.590e+00       1.062e+01       4.332e-01          -0.148           0.019           0.989       1.821e-02         -1.5641
 939       3.703e+00       1.062e+01       4.454e-01          -0.076          -0.002           0.997       2.378e-02         -0.9634
 940       3.844e+00       1.062e+01       4.527e-01          -0.031          -0.015           0.999       2.806e-02         -0.6947
 941       4.003e+00       1.062e+01       4.547e-01           0.004          -0.025           1.000       3.075e-02         -0.5569
 942       4.173e+00       1.062e+01       4.512e-01           0.037          -0.033           0.999       3.169e-02         -0.4882
 943       4.342e+00       1.062e+01       4.414e-01           0.079          -0.042           0.996       3.084e-02         -0.4446
 944       4.502e+00       1.062e+01       4.252e-01           0.125          -0.051           0.991       2.827e-02         -0.3950
 945       4.642e+00       1.062e+01       4.047e-01           0.167          -0.058           0.984       2.405e-02         -0.3496
 946       4.755e+00       1.062e+01       3.838e-01           0.202          -0.063           0.977       1.838e-02         -0.3158
 947       4.834e+00       1.062e+01       3.665e-01           0.231          -0.067           0.971       1.156e-02         -0.4252
 948       4.875e+00       1.062e+01       3.524e-01           0.551          -0.106           0.828       4.598e-03         -0.1282
Strip 37
 949       4.895e+00       1.077e+01       3.535e-01          -0.225           0.068          -0.972       2.318e-03         -0.5077
 950       4.855e+00       1.077e+01       3.606e-01          -0.157           0.059          -0.986       6.724e-03         -0.4953
 951       4.778e+00       1.077e+01       3.663e-01          -0.020           0.039          -0.999       1.064e-02         -0.4053
 952       4.667e+00       1.077e+01       3.602e-01           0.111           0.018          -0.994       1.410e-02         -0.2818
 953       4.529e+00       1.077e+01       3.403e-01           0.169           0.008          -0.986       1.683e-02         -0.2179
 954       4.373e+00       1.077e+01       3.156e-01           0.145           0.013          -0.989       1.838e-02         -0.2241
 955       4.207e+00       1.077e+01       2.980e-01           0.067           0.030          -0.997       1.877e-02         -0.2117
 956       4.041e+00       1.077e+01       2.923e-01           0.001           0.046          -0.999       1.819e-02         -0.1499
 957       3.884e+00       1.077e+01       2.954e-01          -0.042           0.057          -0.997       1.661e-02         -0.0734
 958       3.747e+00       1.077e+01       3.045e-01          -0.093           0.072          -0.993       1.409e-02          0.0309
 959       3.636e+00       1.077e+01       3.182e-01          -0.163           0.092          -0.982       1.080e-02          0.2103
 960       3.558e+00       1.077e+01       3.371e-01          -0.342           0.146          -0.928       7.120e-03          0.5682
 961       3.518e+00       1.077e+01       3.633e-01          -0.804           0.280          -0.524       4.232e-03          0.3106
 962       3.518e+00       1.077e+01       3.938e-01          -0.802           0.242           0.546       4.202e-03         -2.5701
 963       3.558e+00       1.077e+01       4.195e-01          -0.330           0.078           0.941       7.079e-03         -2.5337
 964       3.636e+00       1.077e+01       4.371e-01          -0.148           0.019           0.989       1.076e-02         -1.2555
 965       3.747e+00       1.077e+01       4.491e-01          -0.076          -0.002           0.997       1.405e-02         -0.7806
 966       3.884e+00       1.077e+01       4.563e-01          -0.031          -0.015           0.999       1.658e-02         -0.5945
 967       4.041e+00       1.077e+01       4.582e-01           0.004          -0.025           1.000       1.817e-02         -0.5118
 968       4.207e+00       1.077e+01       4.548e-01           0.037          -0.033           0.999       1.872e-02         -0.4849
 969       4.373e+00       1.077e+01       4.452e-01           0.079          -0.042           0.996       1.822e-02         -0.4981
 970       4.529e+00       1.077e+01       4.293e-01           0.125          -0.051           0.991       1.670e-02         -0.5589
 971       4.667e+00       1.077e+01       4.092e-01           0.167          -0.058           0.984       1.421e-02         -0.6904
 972       4.778e+00       1.077e+01       3.887e-01           0.202          -0.063           0.977       1.086e-02         -0.8489
 973       4.855e+00       1.077e+01       3.717e-01           0.231          -0.067           0.971       6.828e-03         -1.1022
 974       4.895e+00       1.077e+01       3.579e-01           0.551          -0.106           0.828       2.716e-03         -0.8586
Strip 38
 975       4.905e+00       1.085e+01       3.563e-01          -0.225           0.068          -0.972       7.665e-04         -1.3010
 976       4.866e+00       1.085e+01       3.633e-01          -0.157           0.059          -0.986       2.224e-03         -1.3547
 977       4.789e+00       1.085e+01       3.690e-01          -0.020           0.039          -0.999       3.518e-03         -1.2059
 978       4.679e+00       1.085e+01       3.629e-01           0.111           0.018          -0.994       4.665e-03         -0.8393
 979       4.543e+00       1.085e+01       3.433e-01           0.169           0.008          -0.986       5.565e-03         -0.5207
 980       4.388e+00       1.085e+01       3.188e-01           0.145           0.013          -0.989       6.080e-03         -0.3648
 981       4.224e+00       1.085e+01       3.014e-01           0.067           0.030          -0.997       6.209e-03         -0.2843
 982       4.059e+00       1.085e+01       2.957e-01           0.001           0.046          -0.999       6.016e-03         -0.2145
 983       3.905e+00       1.085e+01       2.988e-01          -0.042           0.057          -0.997       5.492e-03         -0.1510
 984       3.768e+00       1.085e+01       3.078e-01          -0.093           0.072          -0.993       4.660e-03         -0.0730
 985       3.659e+00       1.085e+01       3.214e-01          -0.163           0.092          -0.982       3.572e-03          0.0638
 986       3.582e+00       1.085e+01       3.401e-01          -0.342           0.146          -0.928       2.354e-03          0.3744
 987       3.542e+00       1.085e+01       3.660e-01          -0.804           0.280          -0.524       1.399e-03          0.4213
 988       3.542e+00       1.084e+01       3.962e-01          -0.802           0.242           0.546       1.390e-03         -1.7661
 989       3.582e+00       1.084e+01       4.216e-01          -0.330           0.078           0.941       2.341e-03         -1.9385
 990       3.659e+00       1.084e+01       4.391e-01          -0.148           0.019           0.989       3.559e-03         -0.9833
 991       3.768e+00       1.084e+01       4.509e-01          -0.076          -0.002           0.997       4.648e-03         -0.6575
 992       3.905e+00       1.084e+01       4.580e-01          -0.031          -0.015           0.999       5.482e-03         -0.5419
 993       4.059e+00       1.084e+01       4.600e-01           0.004          -0.025           1.000       6.008e-03         -0.4936
 994       4.224e+00       1.084e+01       4.566e-01           0.037          -0.033           0.999       6.192e-03         -0.4844
 995       4.388e+00       1.084e+01       4.471e-01           0.079          -0.042           0.996       6.027e-03         -0.5209
 996       4.543e+00       1.084e+01       4.313e-01           0.125          -0.051           0.991       5.524e-03         -0.6580
 997       4.679e+00       1.084e+01       4.115e-01           0.167          -0.058           0.984       4.700e-03         -0.9813
 998       4.789e+00       1.084e+01       3.912e-01           0.202          -0.063           0.977       3.592e-03         -1.4189
 999       4.866e+00       1.084e+01       3.744e-01           0.231          -0.067           0.971       2.258e-03         -1.8578
1000       4.905e+00       1.085e+01       3.607e-01           0.551          -0.106           0.828       8.983e-04         -1.7135










